Version 4
SHEET 1 1004 680
WIRE -80 144 -160 144
WIRE 32 144 -48 144
WIRE 208 144 32 144
WIRE 416 160 272 160
WIRE 496 160 416 160
WIRE 208 176 144 176
WIRE 32 272 32 144
WIRE 192 272 32 272
WIRE 416 272 416 240
WIRE 416 272 272 272
WIRE 448 272 416 272
WIRE 544 272 512 272
WIRE 544 304 544 272
WIRE 32 368 32 272
WIRE 192 368 32 368
WIRE 416 368 416 272
WIRE 416 368 256 368
FLAG 496 160 SIG_OUT
IOPIN 496 160 BiDir
FLAG -64 304 0
FLAG -64 224 V+
FLAG 32 144 FB
FLAG 240 192 0
FLAG 240 128 V+
FLAG -160 144 0
FLAG 144 176 0
FLAG 544 384 0
SYMBOL res 288 256 R90
WINDOW 0 0 56 VBottom 2
WINDOW 3 32 56 VTop 2
SYMATTR InstName R1
SYMATTR Value 2k
SYMBOL voltage -64 208 R0
WINDOW 123 0 0 Left 0
WINDOW 39 0 0 Left 0
SYMATTR InstName V1
SYMATTR Value 5
SYMBOL Randles_Circuit -64 80 R90
WINDOW 0 -48 0 VBottom 2
SYMATTR InstName X1
SYMBOL OpAmps\\opamp2 240 96 R0
SYMATTR InstName U1
SYMATTR Value OPAx328
SYMBOL cap 256 352 R90
WINDOW 0 0 32 VBottom 2
WINDOW 3 32 32 VTop 2
SYMATTR InstName C1
SYMATTR Value 1.5n
SYMATTR SpiceLine V=50
SYMBOL ind 400 144 R0
SYMATTR InstName L1
SYMATTR Value 1T
SYMBOL cap 512 256 R90
WINDOW 0 0 32 VBottom 2
WINDOW 3 32 32 VTop 2
SYMATTR InstName C2
SYMATTR Value 1T
SYMBOL voltage 544 288 R0
WINDOW 123 0 0 Left 0
WINDOW 39 0 0 Left 0
SYMATTR InstName V4
SYMATTR Value ac 1
SYMBOL OpAmps\\LT1462 496 -144 R0
SYMATTR InstName U2
TEXT 416 96 Left 2 !.inc OPAx392.LIB
TEXT -168 416 Left 2 !.ac dec 101 1 100k
TEXT 416 72 Left 2 !.inc OPAx328.LIB
