Version 4
SHEET 1 892 680
WIRE -336 -112 -400 -112
WIRE -224 -112 -256 -112
WIRE -176 -112 -224 -112
WIRE -16 -112 -96 -112
WIRE 96 -112 16 -112
WIRE 176 -112 96 -112
WIRE -224 -32 -224 -112
WIRE -16 -32 -224 -32
WIRE 96 -32 96 -112
WIRE 96 -32 16 -32
FLAG 176 -112 WE
IOPIN 176 -112 BiDir
FLAG -400 -112 WE-RE
IOPIN -400 -112 BiDir
SYMBOL CPE1 0 0 R270
WINDOW 0 32 0 VTop 2
SYMATTR InstName X1
SYMBOL CPE2 0 -144 R90
WINDOW 0 -16 0 VBottom 2
SYMATTR InstName X2
SYMBOL res -80 -128 R90
WINDOW 0 0 56 VBottom 2
WINDOW 3 32 56 VTop 2
SYMATTR InstName R3
SYMATTR Value 37785
SYMBOL res -240 -128 R90
WINDOW 0 0 56 VBottom 2
WINDOW 3 32 56 VTop 2
SYMATTR InstName R4
SYMATTR Value 230
