Version 4
SHEET 1 880 680
WIRE -192 -128 -192 -160
WIRE -96 -128 -96 -160
WIRE 0 -128 0 -160
WIRE 288 -128 288 -160
WIRE -192 -16 -192 -48
WIRE -96 -16 -96 -48
WIRE 0 -16 0 -48
WIRE 288 -16 288 -48
WIRE 128 64 48 64
WIRE -128 96 -192 96
WIRE 112 96 48 96
WIRE 304 112 272 112
WIRE 400 112 368 112
WIRE 112 128 48 128
WIRE 112 240 48 240
WIRE -128 272 -192 272
WIRE 112 272 48 272
WIRE 112 304 48 304
FLAG -192 -16 0
FLAG -192 -160 5V
FLAG -192 96 5V
FLAG -192 272 5V
FLAG 0 -16 0
FLAG 0 -160 DAC_OUT
FLAG 128 64 DAC_OUT
FLAG 112 96 CE
FLAG 112 128 RE
FLAG 288 -160 WE-RE
FLAG 400 112 WE-I
FLAG 112 240 WE-I
FLAG 272 112 WE-RE
FLAG 112 272 SIG_OUT
FLAG -96 -16 0
FLAG -96 -160 DAC_WE
FLAG 112 304 DAC_WE
FLAG 288 -16 0
SYMBOL voltage -192 -144 R0
WINDOW 123 0 0 Left 0
WINDOW 39 0 0 Left 0
SYMATTR InstName V1
SYMATTR Value 5
SYMBOL voltage 0 -144 R0
WINDOW 123 0 0 Left 0
WINDOW 39 0 0 Left 0
SYMATTR InstName V2
SYMATTR Value PWL file=swv.txt
SYMBOL voltage -96 -144 R0
WINDOW 123 0 0 Left 0
WINDOW 39 0 0 Left 0
SYMATTR InstName V4
SYMATTR Value 2
SYMBOL bv 288 -144 R0
SYMATTR InstName B1
SYMATTR Value V=2*V(dac_we)-V(re)
SYMBOL OPA2328_Trans_Amp -48 272 R0
WINDOW 39 8 -28 Bottom 2
SYMATTR SpiceLine R=2k C=1.5n
SYMATTR InstName X2
SYMBOL randles 304 128 R270
SYMATTR InstName X3
SYMBOL OPA2328_Control_Amp -48 96 R0
SYMATTR InstName X1
TEXT 296 288 Left 2 !.tran 0 11 0
