Version 4
SHEET 1 880 680
WIRE -192 -128 -192 -160
WIRE -96 -128 -96 -160
WIRE 0 -128 0 -160
WIRE 288 -128 288 -160
WIRE -192 -16 -192 -48
WIRE -96 -16 -96 -48
WIRE 0 -16 0 -48
WIRE 288 -16 288 -48
WIRE -128 80 -208 80
WIRE 112 80 48 80
WIRE -128 112 -192 112
WIRE 112 112 48 112
WIRE 432 112 368 112
WIRE 432 144 368 144
WIRE 112 240 48 240
WIRE -128 272 -192 272
WIRE 112 272 48 272
WIRE 112 304 48 304
FLAG -192 -16 0
FLAG -192 -160 5V
FLAG -192 112 5V
FLAG -192 272 5V
FLAG 0 -16 0
FLAG 0 -160 DAC_OUT
FLAG -208 80 DAC_OUT
FLAG 112 80 CE
FLAG 112 112 RE
FLAG 288 -160 WE-RE
FLAG 432 112 WE-I
FLAG 112 240 WE-I
FLAG 432 144 WE-RE
FLAG 112 272 SIG_OUT
FLAG -96 -16 0
FLAG -96 -160 DAC_WE
FLAG 112 304 DAC_WE
FLAG 288 -16 0
SYMBOL OPA2392_Control_Amp -48 96 R0
SYMATTR InstName Control
SYMBOL OPA2392_Trans_Amp -48 272 R0
SYMATTR InstName Transimpedance
SYMATTR SpiceLine R=47k C=17nF
SYMBOL Randles_Circuit 304 128 R0
SYMATTR InstName Randles
SYMBOL voltage -192 -144 R0
WINDOW 123 0 0 Left 0
WINDOW 39 0 0 Left 0
SYMATTR InstName V1
SYMATTR Value 5
SYMBOL voltage 0 -144 R0
WINDOW 123 0 0 Left 0
WINDOW 39 0 0 Left 0
SYMATTR InstName V2
SYMATTR Value PWL file=swv.txt
SYMBOL voltage -96 -144 R0
WINDOW 123 0 0 Left 0
WINDOW 39 0 0 Left 0
SYMATTR InstName V4
SYMATTR Value 1
SYMBOL bv 288 -144 R0
SYMATTR InstName B1
SYMATTR Value V=2*V(dac_we)-V(re)
TEXT 296 288 Left 2 !.tran 0 11 0
